Version 4
SHEET 1 880 680
WIRE 96 0 48 0
WIRE 448 0 240 0
WIRE 96 160 96 80
WIRE 256 160 240 160
WIRE 336 160 256 160
WIRE 448 160 448 0
WIRE 448 160 416 160
WIRE 544 160 448 160
WIRE 256 240 240 240
WIRE 448 240 256 240
WIRE 544 240 448 240
WIRE 448 256 448 240
FLAG 240 80 0
FLAG 96 240 0
FLAG 48 80 0
FLAG 448 336 0
SYMBOL SLV 48 0 M0
SYMATTR InstName V1
SYMBOL SLN 176 -16 R0
SYMATTR InstName N1
SYMBOL SLE 160 144 M0
SYMATTR InstName E1
SYMATTR Value {A_d}
SYMBOL SLI 256 160 R0
SYMATTR InstName I1
SYMATTR SpiceLine2 noise={S_i}
SYMBOL SLV 416 160 R90
WINDOW 0 -24 40 VBottom 2
WINDOW 3 24 30 VTop 2
WINDOW 123 64 36 VTop 2
WINDOW 39 38 29 VTop 2
WINDOW 40 51 17 VTop 2
SYMATTR InstName V2
SYMATTR SpiceLine2 noise={S_v}
SYMBOL SLR 448 160 R0
SYMATTR InstName R1
SYMATTR Value {R_s}
SYMBOL SLV 448 256 R0
SYMATTR InstName V3
SYMBOL SLI 544 160 R0
SYMATTR InstName I2
SYMATTR SpiceLine2 noise={4*k*T/R_s}
