Version 4
SHEET 1 880 680
WIRE 128 0 112 0
WIRE 224 0 208 0
WIRE 320 0 304 0
WIRE 336 0 320 0
WIRE 336 80 112 80
WIRE 112 96 112 80
FLAG 112 96 0
FLAG 320 0 out
SYMBOL SLV 112 0 M0
SYMATTR InstName V1
SYMATTR SpiceLine2 noise={4*k*T*R_s}
SYMBOL SLR 208 0 R90
WINDOW 0 -8 40 VBottom 2
WINDOW 3 8 40 VTop 2
SYMATTR InstName R1
SYMATTR Value {R_s}
SYMBOL SLI 336 0 R0
SYMATTR InstName I1
SYMATTR SpiceLine2 noise={S_i}
SYMBOL SLV 304 0 R90
WINDOW 0 -24 40 VBottom 2
WINDOW 3 25 41 VTop 2
WINDOW 123 60 49 VTop 2
WINDOW 39 37 40 VTop 2
WINDOW 40 48 29 VTop 2
SYMATTR InstName V2
SYMATTR SpiceLine2 noise={S_v}
TEXT 128 96 Left 2 !.param S_i=9e-24 S_v=4e-18 R_s=600
