Version 4
SHEET 1 880 680
WIRE 128 0 112 0
WIRE 224 0 208 0
WIRE 240 0 224 0
WIRE 320 0 240 0
WIRE 240 80 112 80
WIRE 320 80 240 80
WIRE 112 96 112 80
FLAG 112 96 0
FLAG 224 0 out
SYMBOL SLV 112 0 M0
SYMATTR InstName V1
SYMATTR SpiceLine2 noise={4*k*T*R_s}
SYMBOL SLR 208 0 R90
WINDOW 0 -8 40 VBottom 2
WINDOW 3 8 40 VTop 2
SYMATTR InstName R1
SYMATTR Value {R_s}
SYMBOL SLR 240 0 R0
SYMATTR InstName R2
SYMATTR Value {R_p}
SYMBOL SLI 320 0 R0
SYMATTR InstName I1
SYMATTR SpiceLine2 noise={4*k*T/R_p}
TEXT 128 96 Left 2 !.param R_s=600 R_p=1k
